* PSpice Model Editor - Version 17.2.0

*$
.model Dbreak D Is=3e-12 Rs=0 N=1 TT=0 Cjo=0pF
*$
